LAMMPS (28 Jun 2016-ICMS)
# SPC/E water box benchmark
# HAdResS Relaxation Setup
# Maziar Heidari, Max Planck Institute for Polymer Research
# (heidari@mpip-mainz.mpg.de))

units		real
atom_style	full/hars
boundary	p p p

#read_data	HAdResS_SPC.data
#read_restart	restart.waterT300.10000

variable        root index waterT300
variable 	Nrun equal 5000
variable 	Nf equal 100
variable 	Ne equal 10
variable 	Nr equal 100/10
variable 	Ndump equal 1000
variable	Nrestart equal 10000
variable 	Nr_rdf equal 0.5*5000/10

variable 	Text equal 300.0
variable 	Pext equal 1.0

variable        x index 1
variable        y index 1
variable        z index 1

variable        xx equal  40*$x
variable        xx equal  40*1
variable        yy equal  8*$y
variable        yy equal  8*1
variable        zz equal  8*$z
variable        zz equal  8*1

variable        half_xx equal  0.5*40
variable        half_yy equal  0.5*8
variable        half_zz equal  0.5*8

#######################################################################
molecule	mol1 molecule
Read molecule mol1:
  3 atoms with 2 types
  2 bonds with 1 types
  1 angles with 1 types
  0 dihedrals with 0 types
  0 impropers with 0 types

lattice		fcc 5.0
Lattice spacing in x,y,z = 5 5 5
region		box block -20 20 -4 4 -4 4
create_box	2 box bond/types 1 extra/bond/per/atom 2 angle/types 1 extra/angle/per/atom 1 dihedral/types 0 improper/types 0 extra/special/per/atom 2
Created orthogonal box = (-100 -20 -20) to (100 20 20)
create_atoms	0 box mol mol1 10
Created 30720 atoms

mass		1 15.9994
mass		2 1.00794

pair_style	lj/cut/coul/dsf 0.2 10.0 12.0

pair_coeff	1 1 0.15535 3.166
pair_coeff	* 2 0.0000 0.0000
########################################################################

bond_style	harmonic
angle_style	harmonic

bond_coeff	1 1000.00 1.000
angle_coeff	1 100.0 109.47

special_bonds   lj/coul 0.0 0.0 0.5

neighbor        2.0 bin
neigh_modify	every 1 delay 2 check yes

fix		1 all shake 0.0001 20 0 b 1 a 1
fix             2 all npt temp 300 300 100.0 iso 1 1 1000.0

velocity	all create 300 432567 dist uniform

timestep	1.0

########################################################################
compute 	FFX all property/atom fx
compute 	SumFFX all reduce sum c_FFX

compute 	FFY all property/atom fy
compute 	SumFFY all reduce sum c_FFY

compute 	FFZ all property/atom fz
compute 	SumFFZ all reduce sum c_FFZ

compute 	T all temp
fix 		TempAve all ave/time 10 10 100 c_T

compute 	Pperatom all stress/atom NULL
variable 	Patom atom -1.0*c_Pperatom[1]/(3*0.5*(yhi-ylo)*(zhi-zlo))

variable 	P equal press
fix 		PressAve all ave/time 10 10 100 v_P
compute		xbin all chunk/atom bin/1d x lower 1.0

fix		PressureP all ave/chunk 10 100 1000 xbin v_Patom ave one file Pres.profile
fix		DensityD all ave/chunk 10 100 1000 xbin density/number ave one file Dens.profile

compute 	rdf all rdf 100 1 1 # oxygen-oxygen
fix 		rdf all ave/time 10 100 1000 c_rdf file O.rdf mode vector

########################################################################
thermo_style 	custom step temp f_TempAve press f_PressAve density vol ke ebond eangle evdwl ecoul etotal c_SumFFX c_SumFFY c_SumFFZ

thermo 		100

restart 	10000 restart.waterT300

run		5000
  2 neighbor list requests
  update every 1 steps, delay 2 steps, check yes
Step Temp TempAve Press PressAve Density Volume KinEng E_bond E_angle E_vdwl E_coul TotEng SumFFX SumFFY SumFFZ
0          300            0    3061.0504            0   0.95728236       320000    18313.203            0            0    -8410.406   -10520.398   -617.60182 -2.9558578e-12 -4.7748472e-12 2.0463631e-12
Averages over the last 26 of 51 rows, steps 2500 to 5000:
Temp TempAve Press PressAve Density Volume KinEng E_bond E_angle E_vdwl E_coul TotEng SumFFX SumFFY SumFFZ
299.763 299.902 0.425435 -13.7304 0.982528 311784 18298.7 0 0 21742.6 -134880 -94839.1 -1.90207e-13 4.27009e-14 1.47779e-13
Loop time of 776.07 on 8 procs for 5000 steps with 30720 atoms

write_restart	restart.waterT300
