LAMMPS (28 Jun 2016-ICMS)
# SPC/E water box benchmark
# This is HAdResS setup for simulation of water molecules.
# The water molecules are simulated and coupled into two resolution:
# High resolution in which atomistic SPC/E forcefields are present and
# Low resolution in which coarse-grained WCA forcefield is computed.
# For more information see Documentation and the follwoing paper:
# Heidari et al., Eur. Phys. J. Special Topics, 2016.

# You need to have the file "restart.waterT300.50000" for running the script.
# Thus you need to run first the equillibration script (LongSetup) for 50000 timestep,
# and then set it as the restart file.

units		real
atom_style	full/hars
boundary	p p p

#read_data      HAdResS_SPC.data
shell		"test -f ../Relaxation/restart.waterT300 || echo 'Please run the input in the folder Relaxation first'"
read_restart    ../Relaxation/restart.waterT300
  orthogonal box = (-98.9588 -19.7918 -19.7918) to (98.9588 19.7918 19.7918)
  30720 atoms
  23040 bonds
  11520 angles

variable        root index waterT300
variable        Nrun equal 10000
variable        Nf equal 100
variable        Ne equal 10
variable        Nr equal 100/10
variable        Ndump equal 500
variable        Nrestart equal 10000
variable        Nr_rdf equal 0.5*10000/10

variable        Comp_AT_Size equal 60.0
variable        Comp_HY_Size equal 25.0
variable	Hyb_Shape string slab

variable        Comp_Dens_nMolType equal 1
variable        Comp_Pres_Switch equal 1
variable        Comp_Pres_Start equal 150000
variable        Comp_Pres_End equal 300000
variable        Comp_Pres_Freq equal 1000
variable        Comp_Pres_Lambda_Size equal 0.02

variable        Comp_Dens_Switch equal 1
variable        Comp_Dens_Start equal 500000
variable        Comp_Dens_End equal 900000
variable        Comp_Dens_Freq equal 1000
variable        Comp_Dens_Alpha equal 4.0
variable        Comp_Dens_Sigma equal 6.0
variable        Comp_Dens_Range_Int equal 2.0
variable        Comp_Dens_Bin_Size equal 1.5
variable        Comp_Dens_Ref_Dens equal 0.1
variable	Load_File_Flag equal 0

variable 	Text equal 300.0
variable 	Pext equal 1.0

pair_style	hybrid/overlay lj/cut/hars/cg 2.469416506 0 0 lj/cut/coul/dsf/hars/at 0.2 10.0 12.0 0 0

pair_coeff	* * lj/cut/hars/cg 1.0 2.2

pair_coeff	1 1 lj/cut/coul/dsf/hars/at 0.15535 3.166
pair_coeff	* 2 lj/cut/coul/dsf/hars/at 0.0000 0.0000
pair_modify 	shift yes

#######################################################################

bond_style	harmonic
angle_style	harmonic
dihedral_style	none
improper_style	none

bond_coeff	1 1000.00 1.000
angle_coeff	1 100.0 109.47

#special_bonds   lj/cut/coul/dsf/hars/at 0.0 0.0 0.5
special_bonds   lj/coul 0.0 0.0 0.5

neighbor        2.0 bin
neigh_modify	every 1 delay 2 check yes

fix		LAMBDACALC all lambdah/calc 1 25 60 1 0.02 1000 150000 300000 slab 									    1 1.5 1000 500000 900000 6 2 0.1 4 0
nmoltypes= 1
Length_Hyb= 25.000000
Length_ATRegion= 60.000000
Pressure_Comp_Flag= 1
Pressure_lambda_Increment= 0.020000
Pressure_Update_Frequency= 1000
Pressure_Update_Time_Begin= 150000
Pressure_Update_Time_End= 300000
Density_Comp_Flag= 1
Density_Bin_Size= 1.500000
Density_Update_Frequency= 1000
Density_Update_Time_Begin= 500000
Density_Update_Time_End= 900000
Density_Sigma_Gauss= 6.000000
Density_Gauss_Int_Range= 2
Density_Ref= 0.100000
Comp_Density_Scaling_factor_H = 4.000000
Load_File_Flag = 0
Center_box = 0.000000 0.000000 0.000000
Density_Bin_Size = 1.500000
Density_Bin_Num = 131
x0lo= -98.958777
x0hi= 98.958777
x0BoxSize= 197.917555
d1= -55.000000
d2= 30.000000
moltype1

fix		1 all shake 0.0001 20 0 b 1 a 1
fix		3 all nve
fix             4 all langevin   300.0 300.0   100     9892571

timestep	1.0

########################################################################
compute 	FFX all property/atom fx
compute 	SumFFX all reduce sum c_FFX

compute 	FFY all property/atom fy
compute 	SumFFY all reduce sum c_FFY

compute 	FFZ all property/atom fz
compute 	SumFFZ all reduce sum c_FFZ

compute 	T all temp
fix 		TempAve all ave/time 10 10 100 c_T

compute 	Pperatom all stress/atom NULL
variable 	Patom atom -1.0*c_Pperatom[1]/(3*0.5*(yhi-ylo)*(zhi-zlo))

variable 	P equal press
fix 		PressAve all ave/time 10 10 100 v_P

compute		xbin all chunk/atom bin/1d x lower 3.0

fix 		PressureP all ave/chunk 5 100 500 xbin v_Patom ave one file Pres.profile
fix 		DensityD all ave/chunk 5 100 500 xbin density/number ave one file Dens.profile

compute         rdf all rdf 100 1 1 # oxygen-oxygen
fix             rdf all ave/time 10 1000 10000 c_rdf file O.rdf mode vector

########################################################################
thermo_style 	custom step temp f_TempAve press f_PressAve density ke ebond eangle evdwl ecoul etotal c_SumFFX c_SumFFY c_SumFFZ

thermo 		100

#dump            2 all  custom 500 wat.lammpstrj id type x y z vx vy vz

restart         10000 restart.waterT300

run		10000
CG_H_AdResS_allocated flag = 0
CG_lambda_Increment= 0.020000
CG_Bin_Num= 50
CG_Update_Frequency= 1000
CG_Update_Time_Begin= 150000
CG_Update_Time_End= 300000
CG_Pressure_Comp_Flag= 1
CG_Density_Comp_Flag= 1
CG_Hybrid_Style= 0
AT_H_AdResS_allocated flag = 0
AT_lambda_Increment= 0.020000
AT_Bin_Num= 50
AT_Update_Frequency= 1000
AT_Update_Time_Begin= 150000
AT_Update_Time_End= 300000
AT_Pressure_Comp_Flag= 1
  3 neighbor list requests
  update every 1 steps, delay 2 steps, check yes
Step Temp TempAve Press PressAve Density KinEng E_bond E_angle E_vdwl E_coul TotEng SumFFX SumFFY SumFFZ
5000    300.98135            0    1348.8989            0   0.98781835    18373.108            0            0            0   -414596.88   -396223.77   -1976.5581    538.89606    -1104.465
Averages over the last 51 of 101 rows, steps 10000 to 15000:
Temp TempAve Press PressAve Density KinEng E_bond E_angle E_vdwl E_coul TotEng SumFFX SumFFY SumFFZ
302.147 302.204 360.533 340.186 0.987818 18444.2 0 0 11613.7 -476752 -446694 298.247 -11.9417 -219.588
Loop time of 2614.86 on 8 procs for 10000 steps with 30720 atoms

Please see the log.cite file for references relevant to this simulation
